20
Estructura extra√≠da de pw.out
N             9.5541548871        9.9751993410        9.6394112491
N            11.6972211929        9.6655302869        9.9666307155
C             8.1601350662        9.6945177716        9.3669570657
C            10.5323830731        9.0232135721        9.6731744712
C            10.1098779737       11.2025143399        9.9189367333
C            11.4424259269       11.0148812315       10.1193039948
C             7.3853749349        9.3913983412       10.6334029957
C            12.9743533074        9.0196635497       10.0917774973
H             7.7432905007       10.5659931347        8.8516485402
H             8.1190120901        8.8488933211        8.6738023221
H            10.4105022851        7.9840751332        9.5015710151
H             9.4543000480       12.0636054739        9.9324462431
H            12.2740755845       11.6631972684       10.3563603899
H             7.8007874182        8.5174388866       11.1451427041
H             6.3365454736        9.1834961788       10.3856327305
H             7.4170886502       10.2388138802       11.3252844242
H            12.8682464680        7.9460030138        9.9082243388
H            13.6649379124        9.4455939686        9.3582816003
H            13.3574054770        9.1773680328       11.1040543202
Cl           11.6813817301        1.3760032739        9.8048066489
