         242
  Built with Packmol                                             
  N            2.043781       12.820077       10.804645
  N            1.668043       12.848479        8.680254
  C            1.849393       12.639899       12.227819
  C            1.125685       12.561068        9.867942
  C            3.191596       13.281009       10.205948
  C            2.953652       13.299069        8.860699
  C            3.081386       13.023061       13.029560
  C            0.996950       12.703625        7.405618
  H            0.995894       13.254297       12.534591
  H            1.597484       11.588892       12.405895
  H            0.128791       12.187460       10.041704
  H            4.055043       13.548039       10.784249
  H            3.524253       13.572024        7.993937
  H            3.945371       12.404803       12.765272
  H            2.886700       12.870377       14.096478
  H            3.340944       14.077992       12.894472
  H           -0.019516       12.330134        7.556688
  H            0.952310       13.676760        6.908966
  H            1.552033       11.995210        6.784586
  N            5.128006        3.607076        5.612424
  N            6.769199        3.305880        6.980192
  C            4.338523        3.607357        4.399002
  C            6.374540        3.134681        5.714374
  C            4.719362        4.088512        6.832918
  C            5.758651        3.897855        7.699039
  C            2.961601        4.213510        4.608930
  C            8.063441        2.922972        7.503991
  H            4.885889        4.173810        3.637704
  H            4.244331        2.571779        4.054773
  H            6.954366        2.695089        4.918048
  H            3.743648        4.514112        6.967546
  H            5.925218        4.101808        8.739243
  H            2.378641        3.650119        5.344667
  H            2.403778        4.191681        3.666652
  H            3.023279        5.259621        4.925705
  H            8.672491        2.478492        6.712147
  H            8.571414        3.809459        7.893545
  H            7.925892        2.191930        8.305431
  N           12.852270        6.190673       11.046491
  N           12.969891        7.242156        9.166179
  C           12.996817        5.156260       12.048873
  C           13.280569        6.097676        9.783435
  C           12.257703        7.414425       11.239617
  C           12.332114        8.080251       10.048913
  C           12.406555        5.565893       13.387230
  C           13.264481        7.543454        7.781086
  H           12.498577        4.253275       11.679511
  H           14.064410        4.938093       12.160384
  H           13.785500        5.251491        9.344584
  H           11.844801        7.691277       12.190482
  H           12.017811        9.044778        9.699246
  H           12.905271        6.450417       13.796451
  H           12.539354        4.754196       14.110447
  H           11.332128        5.762440       13.313239
  H           13.773086        6.696535        7.312503
  H           12.330200        7.741221        7.248495
  H           13.912076        8.423232        7.733549
  N            4.360034       12.905131        2.023356
  N            6.057779       13.104150        3.339820
  C            3.503921       13.033307        0.863047
  C            5.582834       13.434111        2.134452
  C            4.048085       12.226330        3.176739
  C            5.123130       12.352410        4.010417
  C            2.175863       12.319172        1.046567
  C            7.357861       13.484256        3.851047
  H            3.334441       14.100356        0.682117
  H            4.036800       12.619186        0.000301
  H            6.091862       14.020181        1.385463
  H            3.106161       11.725845        3.293240
  H            5.359510       12.009182        4.999197
  H            2.311809       11.243800        1.200369
  H            1.564881       12.444007        0.146207
  H            1.606250       12.731908        1.885429
  H            7.891982       14.084809        3.109715
  H            7.228579       14.071791        4.764139
  H            7.937089       12.582742        4.068800
  N           11.510509       12.340047        2.996996
  N           10.755851       11.457544        4.815431
  C           12.362369       13.061732        2.075486
  C           11.761645       12.171180        4.299231
  C           10.324579       11.724678        2.675646
  C            9.846650       11.165898        3.827161
  C           11.800840       13.075964        0.664143
  C           10.649680       11.057780        6.202861
  H           12.472220       14.086740        2.446086
  H           13.349300       12.586643        2.082100
  H           12.621143       12.543884        4.833954
  H            9.939287       11.742150        1.674385
  H            8.976897       10.594012        4.087628
  H           11.707020       12.064819        0.255065
  H           12.477407       13.631364        0.005873
  H           10.825811       13.571890        0.620842
  H           11.509154       11.429236        6.767525
  H            9.732595       11.473882        6.628843
  H           10.624506        9.966237        6.262440
  N            1.931596        5.949652        9.476975
  N            2.748582        5.979319       11.473642
  C            1.133498        5.574591        8.328914
  C            1.869082        5.363562       10.676972
  C            2.866661        6.956195        9.506968
  C            3.384071        6.974945       10.771315
  C            1.438088        6.431379        7.112138
  C            2.987449        5.642608       12.861307
  H            1.333600        4.520947        8.105651
  H            0.077455        5.673007        8.602546
  H            1.224507        4.542964       10.950314
  H            3.071984        7.554224        8.640088
  H            4.124239        7.563467       11.278426
  H            1.219497        7.488304        7.295687
  H            0.812318        6.111199        6.272241
  H            2.481547        6.330853        6.796565
  H            2.347611        4.808065       13.160748
  H            4.035035        5.355791       12.987588
  H            2.762503        6.510921       13.486672
  N            9.467954        8.744783        1.551072
  N            8.087396       10.399708        1.449553
  C           10.570068        7.859235        1.239904
  C            9.157986        9.850649        0.866689
  C            8.580721        8.584100        2.588075
  C            7.706444        9.632021        2.523757
  C           10.657878        6.689366        2.204839
  C            7.436801       11.616119        1.010103
  H           10.432731        7.492438        0.216844
  H           11.495650        8.443999        1.273622
  H            9.679262       10.229302        0.001548
  H            8.654251        7.753018        3.262741
  H            6.855641        9.945256        3.097678
  H           10.824861        7.024266        3.233684
  H           11.503502        6.049933        1.929930
  H            9.756912        6.068336        2.171954
  H            7.945507       12.016891        0.129126
  H            6.396211       11.396817        0.755688
  H            7.474134       12.355638        1.814694
  N            8.055175        4.591495       12.489887
  N            9.683311        3.213911       12.163605
  C            6.871137        5.203752       13.054573
  C            8.615562        3.460095       12.929545
  C            8.776249        5.076187       11.425227
  C            9.807215        4.203815       11.218554
  C            6.484701        6.482713       12.331848
  C           10.567352        2.077342       12.314366
  H            6.052736        4.477873       12.996498
  H            7.068715        5.414595       14.111121
  H            8.267459        2.857271       13.753561
  H            8.492341        5.981242       10.923679
  H           10.622984        4.145840       10.523913
  H            7.272979        7.239562       12.397875
  H            5.586785        6.907595       12.793097
  H            6.252323        6.298392       11.278033
  H           10.231128        1.447290       13.142320
  H           10.561756        1.491230       11.391279
  H           11.580170        2.433603       12.521552
  N           10.968058        1.355235        3.850606
  N           12.009319        1.932542        2.051295
  C            9.908165        0.951819        4.750360
  C           10.816082        1.581929        2.541823
  C           12.279786        1.564808        4.202494
  C           12.939153        1.930454        3.063119
  C           10.400668        0.774731        6.176365
  C           12.272014        2.261429        0.666063
  H            9.124227        1.716233        4.716223
  H            9.487001        0.011301        4.379102
  H            9.896255        1.496256        1.984909
  H           12.614538        1.435904        5.213732
  H           13.951941        2.192917        2.824917
  H           11.165719       -0.005184        6.247008
  H            9.566337        0.470542        6.817372
  H           10.801291        1.707744        6.585617
  H           11.351269        2.186404        0.081153
  H           12.654740        3.283869        0.604530
  H           13.011604        1.563564        0.264017
  N            3.494255        1.241931       10.852608
  N            2.824568        1.061875        8.809540
  C            4.282492        1.075954       12.055441
  C            3.771545        0.678997        9.672093
  C            2.351096        1.996612       10.742964
  C            1.926970        1.882544        9.449232
  C            3.705264        1.844269       13.231837
  C            2.762727        0.668025        7.417742
  H            4.323986        0.006599       12.289558
  H            5.300491        1.421048       11.844790
  H            4.608663        0.033557        9.457116
  H            1.954113        2.534747       11.582067
  H            1.102763        2.274228        8.884756
  H            3.678342        2.921498       13.038408
  H            4.333396        1.688346       14.115392
  H            2.697247        1.500423       13.485158
  H            3.600252        0.007727        7.176744
  H            1.823500        0.139100        7.234062
  H            2.815303        1.560418        6.788043
  Al          12.830887        2.938820        8.974388
  Cl          10.519720        2.715984        8.851179
  Cl          12.787087        4.633626        7.383606
  Cl          12.859771        1.232984        7.395165
  Al           5.506960        6.112881        5.483975
  Cl           6.578968        8.171769        5.349414
  Cl           6.792535        5.289846        3.730469
  Cl           3.928368        7.090069        4.084759
  Al           6.393865        8.688430        8.907289
  Cl           6.745545        6.401743        9.139047
  Cl           8.675911        9.093091        9.090011
  Cl           6.050652        8.646516       11.206225
  Al          12.831471       10.450565        1.996405
  Cl          14.005069        8.447058        2.118711
  Cl          14.095789       11.337398        3.734191
  Cl          11.319701        9.398065        3.414662
  Al           6.573185       13.866169       12.239379
  Cl           6.498064       11.563636       12.554060
  Cl           8.525153       14.008898       13.494098
  Cl           5.178276       13.945025       14.097515
  Al           0.005147        2.429463        4.058980
  Cl           0.729285        1.927669        6.210759
  Cl           2.138974        2.054018        3.215949
  Cl           0.451145        4.630945        4.658328
  Al           8.968333       11.998847       11.683179
  Cl          10.547058       13.303369       12.784169
  Cl           8.645064       10.715333       13.594452
  Cl          10.806107       10.767539       10.968248
  Al           2.430941       10.062426       11.052776
  Cl           4.044273        9.305016        9.559518
  Cl           3.524898        9.017955       12.818340
  Cl           1.267911        8.149402       10.426395
  Al           7.476360        1.770948       12.012323
  Cl           8.896710        2.375396       10.273480
  Cl           6.617865        0.018805       10.748260
  Cl           6.039629        3.352600       11.096444
  Al           4.543219       10.065180        3.456489
  Cl           2.555922        8.899148        3.768498
  Cl           5.719047        8.071594        3.237586
  Cl           4.652232       10.065160        5.778723
  Al          12.617774       14.099908        8.007580
  Cl          10.488035       13.392408        7.399315
  Cl          13.405540       11.914207        7.923871
  Cl          11.822909       13.904006       10.183464
  Al           7.982894       10.586532        7.618642
  Cl           8.127018       12.873554        8.012454
  Cl           7.276808       10.971469        5.437326
  Cl           5.849093       10.788031        8.519170
  Al           5.189220        7.184390        0.000245
  Cl           4.250140        8.549474        1.631504
  Cl           5.789161        5.616394        1.608453
  Cl           7.091074        8.482576        0.320120
