         242
  Built with Packmol                                             
  N            5.816545       10.902201        9.594749
  N            4.438646       12.521603        9.960750
  C            6.334377        9.599074        9.235045
  C            4.525514       11.248100        9.563251
  C            6.567129       11.971951       10.019760
  C            5.694591       12.997410       10.251600
  C            7.844759        9.521284        9.376828
  C            3.206923       13.275277       10.065056
  H            5.857848        8.853913        9.881347
  H            6.043326        9.391857        8.199604
  H            3.704685       10.612884        9.269460
  H            7.633649       11.903530       10.115320
  H            5.789993       14.012312       10.586622
  H            8.350856       10.235825        8.719668
  H            8.188502        8.520405        9.094673
  H            8.164440        9.695437       10.409288
  H            2.358098       12.649361        9.776533
  H            3.073867       13.607493       11.098292
  H            3.257371       14.141935        9.400220
  N            1.359800       12.194827        3.193701
  N            1.014747       10.795634        4.799385
  C            1.795483       13.371981        2.472477
  C            1.552354       11.982406        4.499534
  C            0.687728       11.126578        2.650066
  C            0.469156       10.240574        3.666856
  C            1.425823       13.314008        1.000269
  C            1.012925       10.195499        6.116913
  H            1.333732       14.247847        2.941198
  H            2.881936       13.455800        2.583745
  H            2.051780       12.649244        5.184716
  H            0.432883       11.098259        1.608179
  H           -0.003384        9.280531        3.746798
  H            1.897391       12.463669        0.497171
  H            1.774815       14.222824        0.498484
  H            0.341938       13.259358        0.856376
  H            1.510471       10.856823        6.831490
  H           -0.019693       10.031890        6.437192
  H            1.545256        9.241126        6.078896
  N           13.113247        8.847703        9.418846
  N           13.193302        6.917550       10.379640
  C           13.190397        9.876692        8.403511
  C           13.369347        7.551340        9.215733
  C           12.768303        9.045861       10.734187
  C           12.819063        7.823627       11.342631
  C           12.840632       11.250459        8.949254
  C           13.371248        5.495412       10.584342
  H           14.209196        9.880997        8.000916
  H           12.502665        9.607867        7.594472
  H           13.664008        7.100915        8.280925
  H           12.523204       10.021786       11.106714
  H           12.639396        7.464577       12.337704
  H           11.815835       11.285300        9.332840
  H           12.912884       11.992908        8.147332
  H           13.530350       11.559614        9.741221
  H           13.675713        5.016669        9.649661
  H           14.145151        5.333895       11.339746
  H           12.427003        5.058924       10.921283
  N            5.187444       11.836859        3.109665
  N            4.838245       10.201930        1.745813
  C            5.746397       13.037449        3.694326
  C            5.581769       11.293432        1.953553
  C            4.175636       11.080095        3.649969
  C            3.954547       10.044745        2.786367
  C            5.083927       13.397051        5.013124
  C            4.953066        9.326773        0.598223
  H            6.819044       12.874143        3.845359
  H            5.621355       13.855000        2.976161
  H            6.359005       11.669808        1.307164
  H            3.716056       11.345586        4.582481
  H            3.284606        9.206871        2.763716
  H            4.014432       13.595182        4.888681
  H            5.538658       14.308613        5.415373
  H            5.217710       12.609666        5.761874
  H            5.739980        9.685835       -0.070629
  H            5.202516        8.317747        0.937764
  H            4.001680        9.312362        0.059423
  N           10.487293        9.779373        6.445736
  N           10.178564       11.914008        6.500936
  C           10.719895        8.441458        5.944185
  C           10.394384       10.875933        5.686576
  C           10.327804       10.122062        7.766911
  C           10.132230       11.473789        7.801875
  C           10.773354        7.410719        7.058693
  C           10.019946       13.286936        6.069713
  H            9.913640        8.196056        5.244339
  H           11.665282        8.445628        5.391002
  H           10.479079       10.913547        4.611873
  H           10.368054        9.383818        8.544506
  H            9.964566       12.195262        8.578234
  H           11.589778        7.613393        7.759361
  H           10.950486        6.417816        6.631728
  H            9.829934        7.362754        7.612007
  H           10.097056       13.349849        4.980852
  H            9.037713       13.651869        6.382268
  H           10.804582       13.899641        6.522027
  N            1.959819        5.500909        6.516317
  N            1.965053        7.284331        7.730568
  C            2.397402        4.278987        5.875144
  C            2.706089        6.241598        7.342067
  C            0.721682        6.079898        6.374321
  C            0.725006        7.209276        7.143172
  C            1.317491        3.672364        4.995821
  C            2.408842        8.326720        8.631968
  H            3.284636        4.509044        5.275192
  H            2.686744        3.569447        6.657844
  H            3.721737        6.033097        7.639658
  H           -0.032348        5.640661        5.749991
  H            0.011376        7.980934        7.359142
  H            0.427257        3.404318        5.573919
  H            1.693942        2.753381        4.533994
  H            1.027952        4.348390        4.184862
  H            3.439874        8.139438        8.944087
  H            2.357741        9.291735        8.120322
  H            1.762592        8.339671        9.513921
  N            1.875303        4.093212       10.969431
  N            3.116918        2.677434        9.916345
  C            0.708392        4.736370       11.535418
  C            1.857570        2.954201       10.269617
  C            3.167045        4.552244       11.064653
  C            3.953290        3.655762       10.397737
  C            1.058805        6.016818       12.273708
  C            3.526945        1.522368        9.145796
  H            0.010336        4.952676       10.719341
  H            0.228267        4.028098       12.219243
  H            0.984016        2.366680       10.034461
  H            3.400828        5.458431       11.589485
  H            5.003671        3.573447       10.194536
  H            1.733512        5.827938       13.114932
  H            0.147235        6.465524       12.682651
  H            1.514613        6.756768       11.607967
  H            2.655904        0.912711        8.890598
  H            4.013616        1.857043        8.225583
  H            4.224440        0.923415        9.737747
  N            9.354462        9.326264        1.245453
  N            9.531019        7.176413        1.200819
  C            8.775690       10.652818        1.276346
  C            8.655710        8.186610        1.227190
  C           10.698379        9.039865        1.230049
  C           10.810197        7.678494        1.201711
  C            9.834435       11.741973        1.290709
  C            9.176619        5.772909        1.175884
  H            8.134451       10.764302        0.395189
  H            8.147103       10.728462        2.170182
  H            7.580471        8.100590        1.233187
  H           11.435965        9.819051        1.240695
  H           11.629442        6.985806        1.182018
  H           10.473728       11.674090        2.176857
  H            9.350032       12.723984        1.313906
  H           10.461017       11.709996        0.393563
  H            8.089051        5.660146        1.176332
  H            9.585305        5.313820        0.271528
  H            9.589745        5.281160        2.060847
  N            7.035091        5.286573       13.265700
  N            9.153030        5.667895       13.110935
  C            5.609355        5.504971       13.389212
  C            7.957378        6.253833       13.231157
  C            7.651323        4.062330       13.166389
  C            8.992497        4.303780       13.068457
  C            4.826882        4.203033       13.399212
  C           10.416783        6.370402       13.037055
  H            5.429559        6.058077       14.317544
  H            5.287420        6.130033       12.549306
  H            7.768276        7.314219       13.289439
  H            7.086495        3.150091       13.174498
  H            9.867778        3.690478       12.973008
  H            4.963724        3.640786       12.469849
  H            3.757299        4.418735       13.494052
  H            5.106624        3.568520       14.246347
  H           10.250868        7.449342       13.099345
  H           11.053306        6.055923       13.868674
  H           10.904584        6.135593       12.087022
  N           12.661371        3.042997        4.080337
  N           12.221317        3.572345        2.035546
  C           13.386705        2.835218        5.315810
  C           13.193467        3.523811        2.952023
  C           11.327403        2.779463        3.881702
  C           11.048745        3.114595        2.586838
  C           12.500634        2.276531        6.415880
  C           12.387488        4.037524        0.674649
  H           14.213027        2.145291        5.112719
  H           13.810383        3.796262        5.626740
  H           14.221228        3.818836        2.809749
  H           10.712622        2.385009        4.667659
  H           10.170580        3.092418        1.970639
  H           11.680766        2.959103        6.661796
  H           13.091639        2.136806        7.327319
  H           12.085280        1.300440        6.145276
  H           13.424914        4.338087        0.504555
  H           12.129084        3.230456       -0.016377
  H           11.731684        4.895809        0.504604
  Al           6.725915        3.869226        4.393053
  Cl           8.955044        3.966569        3.738960
  Cl           6.099844        5.179241        2.577352
  Cl           7.266767        5.691898        5.730961
  Al          12.459875        3.098912        9.519711
  Cl          10.471724        4.297157        9.653102
  Cl          13.106125        4.312730        7.645177
  Cl          11.201871        1.571330        8.299639
  Al           3.752251        1.780120        5.954315
  Cl           4.577094       -0.003346        7.197381
  Cl           1.705584        1.641119        7.048256
  Cl           3.210380        0.151683        4.386124
  Al           6.918383        6.927370        9.921366
  Cl           6.448888        4.970838       11.086649
  Cl           9.148833        6.818359       10.567960
  Cl           6.234809        7.993060       11.871158
  Al          12.851434       10.292563        4.240170
  Cl          11.003063        9.158024        3.401912
  Cl          12.608067       11.950558        2.628743
  Cl          14.071163        8.887584        2.846272
  Al           7.787794       14.042911       14.210913
  Cl          10.105481       14.227460       14.235317
  Cl           7.937570       11.723018       14.234008
  Cl           8.018849       14.198706       11.902884
  Al           3.615966        6.856932        2.937080
  Cl           3.397469        7.100416        0.635058
  Cl           2.720337        4.714190        2.830393
  Cl           1.539155        7.898092        3.023675
  Al           9.171710       11.278297       11.554652
  Cl           7.128624       12.153708       12.237136
  Cl           9.472307       10.271250       13.628385
  Cl          10.030234       13.326632       12.241613
  Al           4.776063        6.840866       10.535726
  Cl           2.754671        6.160354        9.609871
  Cl           3.922996        8.968960       10.920909
  Cl           5.376753        7.300912        8.337503
  Al           6.638431        0.943464       11.909082
  Cl           4.414728        1.616196       11.814703
  Cl           7.325908        2.968378       10.996956
  Cl           6.203901       -0.027814        9.842090
  Al           3.513285        8.021584        6.335515
  Cl           5.280474        6.519810        6.168038
  Cl           2.286592        6.805151        4.779756
  Cl           4.673132        9.228136        4.721934
  Al          11.305418       14.266715       10.723460
  Cl          11.789326       13.850799        8.487576
  Cl          12.110806       12.170082       11.323756
  Cl           9.185619       13.479269       10.183979
  Al           6.674853       10.345329        5.579371
  Cl           8.300881       11.960523        5.187566
  Cl           5.967522       11.470339        7.486964
  Cl           8.379241        9.211197        6.680943
