          96
  Built with Packmol                                             
  N            6.550704        6.704747        4.088788
  N            6.351588        5.376276        5.777137
  C            7.083381        7.344288        2.904273
  C            7.136368        5.696811        4.743317
  C            5.372584        7.034274        4.714663
  C            5.246472        6.193107        5.783857
  C            6.607690        6.674957        1.626216
  C            6.630883        4.328264        6.736136
  H            6.789675        8.400073        2.908685
  H            8.177484        7.312422        2.957431
  H            8.071807        5.227076        4.482438
  H            4.780756        7.830378        4.305460
  H            4.517008        6.056927        6.558874
  H            6.906913        5.622163        1.605643
  H            7.033007        7.173648        0.750277
  H            5.516304        6.712730        1.550593
  H            7.581227        3.843720        6.496878
  H            6.690866        4.762743        7.737851
  H            5.829368        3.585273        6.701361
  N            3.018261        0.679970        6.564616
  N            5.173784        0.771931        6.580865
  C            1.641966        0.721506        7.011741
  C            4.083016        0.894179        7.344204
  C            3.435156        0.415981        5.282125
  C            4.800131        0.474129        5.292364
  C            1.039038        2.110398        6.888571
  C            6.534721        0.931107        7.048335
  H            1.056916        0.003333        6.426156
  H            1.608391        0.391261        8.056113
  H            4.063963        1.125387        8.397738
  H            2.692566        0.222687        4.532001
  H            5.569547        0.345106        4.555705
  H            1.608798        2.834014        7.480251
  H            0.003567        2.112244        7.241635
  H            1.050773        2.448345        5.847455
  H            6.540474        1.156652        8.118044
  H            7.086906        0.003594        6.873365
  H            7.008464        1.753129        6.504719
  N            4.442392        2.448437        2.528652
  N            6.341614        1.554898        3.028197
  C            3.188937        2.715466        1.855317
  C            5.311849        1.495455        2.177634
  C            4.924412        3.128516        3.621092
  C            6.127123        2.562779        3.937432
  C            2.039423        1.913258        2.440803
  C            7.499545        0.686716        2.989848
  H            2.972301        3.787707        1.921140
  H            3.309636        2.474203        0.793184
  H            5.200586        0.803487        1.357540
  H            4.335858        3.929037        4.026378
  H            6.870907        2.735691        4.691224
  H            2.239967        0.839518        2.368707
  H            1.109315        2.129053        1.906771
  H            1.895734        2.155116        3.498691
  H            7.413174       -0.018115        2.158623
  H            8.400078        1.292397        2.855715
  H            7.563414        0.129803        3.928698
  N            2.173126        6.748986        5.899899
  N            2.418418        6.336666        3.796372
  C            2.038036        7.470325        7.147799
  C            2.330877        7.317778        4.700342
  C            2.160118        5.381983        5.760581
  C            2.315518        5.120817        4.428558
  C            0.588781        7.787332        7.474727
  C            2.593922        6.534328        2.372945
  H            2.484223        6.874463        7.952057
  H            2.615719        8.398621        7.073979
  H            2.377217        8.376671        4.499466
  H            2.039112        4.778912        6.639871
  H            2.367327        4.230437        3.832022
  H            0.136629        8.393390        6.683157
  H            0.519481        8.339372        8.416697
  H            0.001249        6.868392        7.567583
  H            2.653596        7.602211        2.146566
  H            3.518658        6.046521        2.052462
  H            1.742305        6.100862        1.841413
  Cl           5.066418        3.684460       -0.000130
  Cl           8.367252        1.743199       -0.000107
  Cl           8.398014        5.572433       -0.000121
  Al           7.277228        3.666697       -0.000119
  Cl           5.311798        8.329129       -0.000026
  Cl           3.336449        5.048581        0.000003
  Cl           1.483089        8.399557       -0.000017
  Al           3.377112        7.259089       -0.000013
  Cl           3.820890        0.234326       -0.001489
  Cl          -0.001201       -0.001504       -0.001031
  Cl           1.705610        3.426437       -0.001195
  Al           1.841766        1.219753       -0.001239
  Cl          -0.000539        4.630370        3.856234
  Cl          -0.000558        8.399999        4.529954
  Cl          -0.000765        7.098643        0.928503
  Al          -0.000621        6.709671        3.104897
  Cl           4.611955        4.577183        8.400165
  Cl           4.395304        8.400409        8.400160
  Cl           7.814638        6.676421        8.400145
  Al           5.607299        6.551338        8.400157
