          96
  Built with Packmol                                             
  N            0.694441        5.843398        4.417732
  N            0.750296        6.489464        6.475517
  C            0.818959        5.851847        2.975422
  C            0.991885        6.872505        5.217614
  C            0.255063        4.785407        5.176598
  C            0.290340        5.194489        6.479691
  C            2.189401        5.386477        2.513864
  C            0.946557        7.317952        7.646458
  H            0.039569        5.210674        2.548325
  H            0.631151        6.870922        2.618888
  H            1.361424        7.836178        4.903721
  H           -0.023333        3.877586        4.676754
  H            0.051167        4.741839        7.422675
  H            2.975261        6.028205        2.924887
  H            2.256160        5.412194        1.422196
  H            2.385654        4.363042        2.849030
  H            1.312205        8.305017        7.351185
  H           -0.005434        7.429716        8.172789
  H            1.680642        6.844170        8.303969
  N            5.296191        1.864623        7.587519
  N            3.140662        1.839048        7.497843
  C            6.668658        1.414281        7.684272
  C            4.224970        1.065047        7.610108
  C            4.890064        3.171099        7.459235
  C            3.525085        3.154977        7.402517
  C            7.273427        1.116479        6.322918
  C            1.775892        1.356251        7.479813
  H            7.258244        2.181361        8.198996
  H            6.693155        0.514020        8.308636
  H            4.235198       -0.009860        7.700789
  H            5.638892        3.938907        7.424386
  H            2.761886        3.902941        7.305600
  H            6.699080        0.341846        5.804843
  H            8.305858        0.770435        6.428728
  H            7.270745        2.011179        5.692225
  H            1.761175        0.267764        7.580609
  H            1.224671        1.802029        8.312423
  H            1.307273        1.636255        6.532361
  N            6.711679        6.586944        4.212833
  N            7.096958        6.306660        6.317116
  C            6.432464        7.226954        2.944662
  C            6.845701        7.225955        5.379473
  C            6.879485        5.237108        4.407922
  C            7.123393        5.059546        5.740448
  C            7.701153        7.618833        2.206708
  C            7.307896        6.590734        7.720975
  H            5.832810        6.547255        2.328717
  H            5.821070        8.116409        3.134316
  H            6.766867        8.290626        5.534440
  H            6.802267        4.583825        3.560133
  H            7.315628        4.211533        6.369123
  H            8.302118        8.308203        2.808324
  H            7.458487        8.107210        1.258310
  H            8.315881        6.738035        1.995586
  H            7.222626        7.665218        7.903715
  H            6.553839        6.064332        8.312668
  H            8.307459        6.254753        8.010216
  N            4.019775        1.185880        3.201207
  N            2.017961        1.825922        2.713261
  C            5.373803        0.693969        3.058150
  C            3.158818        1.361388        2.193588
  C            3.419369        1.543556        4.384363
  C            2.151698        1.948801        4.075447
  C            6.373061        1.816600        2.837026
  C            0.830195        2.147654        1.950558
  H            5.640453        0.123198        3.954856
  H            5.400536       -0.001652        2.211806
  H            3.351624        1.165005        1.150509
  H            3.986015        1.459896        5.291778
  H            1.314282        2.313116        4.638763
  H            6.123148        2.385908        1.936047
  H            7.384011        1.414101        2.723747
  H            6.369690        2.512120        3.682313
  H            0.999359        1.946643        0.889351
  H           -0.002841        1.534002        2.304513
  H            0.593157        3.206893        2.082828
  Cl           8.284117        3.376155        2.175570
  Cl           4.939651        4.946743        1.169687
  Cl           8.225741        6.525249       -0.002452
  Al           7.149836        4.949382        1.114269
  Cl           3.709498        8.301711        3.464654
  Cl           2.080752        8.302461       -0.001062
  Cl           5.736347        7.233489        0.396305
  Al           3.842199        7.945887        1.286632
  Cl           8.307187        0.242145        0.002542
  Cl           4.486037       -0.008388       -0.004332
  Cl           6.179648        3.426093       -0.003042
  Al           6.324291        1.219950       -0.001611
  Cl           3.309145        6.327921       -0.007119
  Cl          -0.003744        4.407325        0.001994
  Cl          -0.010590        8.236672       -0.003993
  Al           1.098270        6.323973       -0.003040
  Cl           2.235034        5.251569        5.823651
  Cl           5.349791        7.089021        7.083036
  Cl           5.705724        3.723671        5.290912
  Al           4.430183        5.354754        6.065866
