19
174076
N          2.86600       -0.42390        0.00000
N          3.36600        1.11490        0.00000
C          2.86600       -1.42390        0.00000
C          3.67500        0.16390        0.00000
C          2.05700        0.16390        0.00000
C          2.36600        1.11490        0.00000
C          2.00000       -1.92390        0.00000
C          3.95380        1.92390        0.00000
H          3.07810       -2.00650        0.00000
H          3.47660       -1.31630        0.00000
H          4.26470       -0.02770        0.00000
H          1.46740       -0.02770        0.00000
H          2.00160        1.61650        0.00000
H          1.69000       -1.38700        0.00000
H          1.46310       -2.23390        0.00000
H          2.31000       -2.46090        0.00000
H          4.45540        1.55950        0.00000
H          4.31820        2.42550        0.00000
H          3.45220        2.28840        0.00000
