9
22342451
Cl         4.23200        1.50000        0.00000
Cl         2.50000        1.50000        0.00000
Cl         3.36600        0.00000        0.00000
Cl         4.23200        5.00000        0.00000
Cl         2.50000        5.00000        0.00000
Cl         3.36600        3.50000        0.00000
Cl         0.00000        2.25000        0.00000
Al         3.36600        1.00000        0.00000
Al         3.36600        4.50000        0.00000
