         199
  Built with Packmol                                             
  Cl           2.020038        8.707231       -0.000497
  Cl           3.212414       10.989957        2.833476
  Cl           5.760028        9.382266        0.469376
  Al           3.664160        9.693151        1.100785
  Cl          11.208536       13.722885        3.726557
  Cl           7.686952       13.400495        2.257370
  Cl          10.165617       10.498489        1.943422
  Al           9.687035       12.540623        2.642450
  Cl          16.106707       11.243762        1.202691
  Cl          17.013317        8.059108        3.126239
  Cl          13.602487        8.354195        1.410680
  Al          15.574170        9.219022        1.913203
  Cl           6.808594        9.758956        2.365614
  Cl           4.173283        7.130579        1.465187
  Cl           3.582198        9.503160        4.412297
  Al           4.854692        8.797565        2.747700
  Cl          15.229812       12.777660        2.513209
  Cl          14.500826        9.884959        0.112197
  Cl          12.092758       10.634763        2.993686
  Al          13.941132       11.099128        1.873031
  Cl          13.735711        1.772123        4.003896
  Cl          16.857210        3.970387        3.707464
  Cl          13.784424        5.253337        5.598497
  Al          14.792448        3.665282        4.436619
  Cl           5.468972        5.400410        1.866638
  Cl           8.857369        7.073071        1.246183
  Cl           7.993642        5.730469        4.726897
  Al           7.439994        6.067983        2.613239
  N            7.805566       13.820827        4.447451
  N            7.041712       11.694772        4.594560
  C            7.802289       15.248949        4.191240
  C            6.742654       12.978423        4.215277
  C            8.789450       13.016373        5.023872
  C            8.328348       11.752800        5.122884
  C            9.087399       15.953189        4.593620
  C            6.130603       10.582319        4.665323
  H            7.625587       15.421163        3.122611
  H            6.966229       15.708298        4.732247
  H            5.786091       13.295313        3.820113
  H            9.744583       13.408591        5.336942
  H            8.808493       10.878611        5.535261
  H            9.303046       15.814200        5.658086
  H            9.940756       15.580284        4.017693
  H            9.000950       17.028658        4.407902
  H            5.401159       10.621435        3.849194
  H            5.585800       10.591616        5.615051
  H            6.667643        9.631088        4.585575
  N           12.693884        2.700525        1.046189
  N           14.878349        2.116289        1.155767
  C           11.519211        3.545191        0.937247
  C           13.990304        3.159467        1.090902
  C           12.799042        1.309010        1.054231
  C           14.101376        0.962252        1.106385
  C           10.210727        2.777589        0.847643
  C           16.311347        2.195698        1.042236
  H           11.476799        4.214170        1.805301
  H           11.615283        4.179906        0.048094
  H           14.271390        4.203676        1.043958
  H           11.934612        0.665130        1.006188
  H           14.549489       -0.019580        1.106112
  H           10.203685        2.098322       -0.011111
  H           10.033617        2.189058        1.753860
  H            9.373745        3.473458        0.730058
  H           16.692161        3.103696        1.522032
  H           16.613269        2.209599       -0.010156
  H           16.790313        1.338088        1.526706
  N            7.209740        0.877726        3.325905
  N            9.399181        0.622366        3.842012
  C            5.810913        1.229594        3.482940
  C            8.165604        0.999209        4.308197
  C            7.900502        0.433401        2.197694
  C            9.206829        0.294151        2.502907
  C            4.982637        1.053318        2.221092
  C           10.660507        0.776525        4.518746
  H            5.374056        0.615884        4.280038
  H            5.738372        2.274732        3.807146
  H            7.974281        1.376837        5.304379
  H            7.410640        0.263285        1.251531
  H           10.029199       -0.008128        1.872721
  H            5.378517        1.654222        1.395802
  H            4.960712        0.005321        1.904568
  H            3.950682        1.371568        2.401052
  H           10.549150        0.612872        5.596012
  H           11.059642        1.784122        4.362803
  H           11.394795        0.053815        4.147093
  N           12.794646       14.515139        0.715855
  N           15.026714       14.865914        0.574238
  C           11.537327       13.796980        0.808496
  C           14.031310       13.922787        0.601345
  C           13.051801       15.884624        0.792130
  C           14.382669       16.091340        0.720744
  C           10.323686       14.693846        0.987603
  C           16.444671       14.624835        0.637158
  H           11.400363       13.195298       -0.098184
  H           11.584914       13.098272        1.652431
  H           14.197053       12.853516        0.573528
  H           12.264780       16.613535        0.907941
  H           14.935798       17.016841        0.768667
  H           10.412413       15.311691        1.887218
  H           10.190084       15.356624        0.126300
  H            9.418470       14.086233        1.087552
  H           16.711526       13.714692        0.089333
  H           16.769009       14.508923        1.676508
  H           17.002898       15.455794        0.192745
  N            3.857727       13.780819        0.647039
  N            1.957864       14.996946        0.455250
  C            5.267233       13.484910        0.822871
  C            3.322021       15.046865        0.588053
  C            2.763223       12.917956        0.576590
  C            1.631055       13.643908        0.475473
  C            5.581761       12.000935        0.913775
  C            1.042847       16.105616        0.534453
  H            5.830930       13.914158       -0.014293
  H            5.625512       13.976094        1.735592
  H            3.898189       15.959286        0.672333
  H            2.870922       11.845261        0.619641
  H            0.605954       13.310596        0.421897
  H            5.044354       11.528378        1.742505
  H            5.313039       11.481406       -0.011884
  H            6.653280       11.853253        1.083000
  H            1.477417       17.004565        0.084204
  H            0.797248       16.327362        1.578192
  H            0.112221       15.883678        0.001263
  N            0.905159       10.513607        3.613317
  N            0.662310        8.622649        2.392445
  C            1.258053       11.373026        4.727790
  C            1.046143        9.144919        3.601146
  C            0.440832       10.843834        2.339430
  C            0.308994        9.717749        1.608959
  C            1.057253       12.854478        4.455112
  C            0.830682        7.263693        1.947960
  H            0.658703       11.091012        5.601916
  H            2.308944       11.204144        4.991971
  H            1.441982        8.563527        4.423873
  H            0.252506       11.863350        2.040688
  H           -0.003875        9.599426        0.582844
  H            1.643221       13.185011        3.591226
  H            0.003522       13.083129        4.264491
  H            1.377442       13.443054        5.320939
  H            0.686948        6.560682        2.775487
  H            1.835727        7.114585        1.539878
  H            0.102148        7.013639        1.169292
  N           14.671754       13.283869        4.579529
  N           14.854886       11.030466        4.461777
  C           14.051802       14.590334        4.697833
  C           13.987973       12.090551        4.537508
  C           16.021898       12.931594        4.558329
  C           16.129670       11.588400        4.501315
  C           15.041815       15.740196        4.781868
  C           14.521501        9.634444        4.574270
  H           13.393417       14.754203        3.836133
  H           13.418158       14.606738        5.592769
  H           12.910794       12.000589        4.593879
  H           16.810399       13.666807        4.601412
  H           17.015493       10.971937        4.491839
  H           15.719083       15.623170        5.634232
  H           15.644361       15.811830        3.870400
  H           14.507938       16.687781        4.907001
  H           13.555759        9.423530        4.102525
  H           14.463289        9.336830        5.626371
  H           15.275233        9.011242        4.081198
  N           12.568352        6.620399        3.137988
  N           14.433907        6.213150        1.921813
  C           11.740588        6.955338        4.281583
  C           13.938715        6.499891        3.168255
  C           12.214565        6.426920        1.802011
  C           13.328034        6.197320        1.076402
  C           10.261029        7.082642        3.958977
  C           15.818840        6.187021        1.529444
  H           11.868225        6.187197        5.053928
  H           12.088831        7.902402        4.711097
  H           14.546348        6.648235        4.051635
  H           11.191992        6.482848        1.462389
  H           13.431679        6.028024        0.015555
  H           10.082833        7.845426        3.193918
  H            9.850336        6.132914        3.600766
  H            9.704107        7.372525        4.855863
  H           16.446016        5.788229        2.333994
  H           16.168852        7.195944        1.287691
  H           15.964139        5.551837        0.649079
  N            3.223128        5.245023        4.546028
  N            1.994189        3.346734        4.439093
  C            3.528227        6.659551        4.651900
  C            1.953610        4.716277        4.500381
  C            4.078022        4.142036        4.542348
  C            3.344289        3.011499        4.491765
  C            5.013549        6.967483        4.743392
  C            0.877496        2.445224        4.552921
  H            3.112760        7.182127        3.781756
  H            3.029814        7.068358        5.539113
  H            1.044903        5.302724        4.544188
  H            5.150994        4.243954        4.592063
  H            3.670043        1.982582        4.495258
  H            5.472623        6.470404        5.604249
  H            5.541157        6.647229        3.838940
  H            5.167830        8.045234        4.858497
  H           -0.012938        2.862399        4.070451
  H            0.642261        2.255816        5.605379
  H            1.097949        1.486551        4.071299
